Sn
  --CCDC--050123    3D                              

 60 80  0  0  0  0  0  0  0  0999 V2000
    6.5700    0.0000    6.5700 Sn     0
    4.9275    1.6425    4.9275 Sn     0
    8.2125    1.6425    8.2125 Sn     0
    6.5700    3.2850    3.2850 Sn     0
    8.2125   -1.6425    4.9275 Sn     0
    4.9275   -1.6425    8.2125 Sn     0
    3.2850    0.0000    3.2850 Sn     0
    3.2850    3.2850    6.5700 Sn     0
    6.5700    6.5700    6.5700 Sn     0
    4.9275    8.2125    4.9275 Sn     0
    8.2125    8.2125    8.2125 Sn     0
    6.5700    9.8550    3.2850 Sn     0
    8.2125    4.9275    4.9275 Sn     0
    4.9275    4.9275    8.2125 Sn     0
    3.2850    6.5700    3.2850 Sn     0
    3.2850    9.8550    6.5700 Sn     0
    1.6425    1.6425    1.6425 Sn     0
    0.0000    0.0000    0.0000 Sn     0
    0.0000    3.2850    3.2850 Sn     0
   -1.6425    1.6425   -1.6425 Sn     0
    3.2850    3.2850    0.0000 Sn     0
    1.6425   -1.6425   -1.6425 Sn     0
   -1.6425   -1.6425    1.6425 Sn     0
    1.6425    1.6425    8.2125 Sn     0
    0.0000    0.0000    6.5700 Sn     0
    0.0000    3.2850    9.8550 Sn     0
   -1.6425    1.6425    4.9275 Sn     0
    3.2850    0.0000    9.8550 Sn     0
    1.6425   -1.6425    4.9275 Sn     0
   -1.6425   -1.6425    8.2125 Sn     0
    1.6425    8.2125    1.6425 Sn     0
    0.0000    6.5700    0.0000 Sn     0
    0.0000    9.8550    3.2850 Sn     0
   -1.6425    8.2125   -1.6425 Sn     0
    3.2850    9.8550    0.0000 Sn     0
    1.6425    4.9275   -1.6425 Sn     0
   -1.6425    4.9275    1.6425 Sn     0
    1.6425    8.2125    8.2125 Sn     0
    0.0000    6.5700    6.5700 Sn     0
    0.0000    9.8550    9.8550 Sn     0
   -1.6425    8.2125    4.9275 Sn     0
    3.2850    6.5700    9.8550 Sn     0
    1.6425    4.9275    4.9275 Sn     0
   -1.6425    4.9275    8.2125 Sn     0
    8.2125    1.6425    1.6425 Sn     0
    6.5700    0.0000    0.0000 Sn     0
    4.9275    1.6425   -1.6425 Sn     0
    9.8550    3.2850    0.0000 Sn     0
    9.8550    0.0000    3.2850 Sn     0
    8.2125   -1.6425   -1.6425 Sn     0
    4.9275   -1.6425    1.6425 Sn     0
    6.5700    3.2850    9.8550 Sn     0
    9.8550    3.2850    6.5700 Sn     0
    9.8550    0.0000    9.8550 Sn     0
    8.2125    8.2125    1.6425 Sn     0
    6.5700    6.5700    0.0000 Sn     0
    4.9275    8.2125   -1.6425 Sn     0
    9.8550    9.8550    0.0000 Sn     0
    9.8550    6.5700    3.2850 Sn     0
    8.2125    4.9275   -1.6425 Sn     0
  1  2  1
  1  3  1
  1  5  1
  1  6  1
  2  4  1
  2  7  1
  2  8  1
  9 10  1
  9 11  1
  9 13  1
  9 14  1
 10 12  1
 10 15  1
 10 16  1
 17 18  1
 17 19  1
 17 21  1
 17  7  1
 18 20  1
 18 22  1
 18 23  1
 24 25  1
 24 26  1
 24  8  1
 24 28  1
 25 27  1
 25 29  1
 25 30  1
 31 32  1
 31 33  1
 31 35  1
 31 15  1
 32 34  1
 32 36  1
 32 37  1
 38 39  1
 38 40  1
 38 16  1
 38 42  1
 39 41  1
 39 43  1
 39 44  1
 45 46  1
 45  4  1
 45 48  1
 45 49  1
 46 47  1
 46 50  1
 46 51  1
  3 52  1
  3 53  1
  3 54  1
 55 56  1
 55 12  1
 55 58  1
 55 59  1
 56 57  1
 19 27  1
 19 37  1
 19 43  1
  4 13  1
 14 52  1
 14 42  1
 14  8  1
 43  8  1
 43 15  1
 13 53  1
 13 59  1
  7 51  1
  7 29  1
 21 36  1
 21 47  1
