
  ACD/LABS04302300463D

216 265  0  0  0  0  0  0  0  0  1 V2000
   16.2474   -9.9960    2.4976 P   0  0  0  0  0  0  0  0  0  0  0  0
   17.2414   -9.9960    1.6140 P   0  0  0  0  0  0  0  0  0  0  0  0
   16.2474  -11.2601    0.2434 P   0  0  0  0  0  0  0  0  0  0  0  0
   17.2414  -11.2601    1.1271 P   0  0  0  0  0  0  0  0  0  0  0  0
   16.2474   -9.9960   -0.2434 P   0  0  0  0  0  0  0  0  0  0  0  0
   18.2354   -9.9960    2.4976 P   0  0  0  0  0  0  0  0  0  0  0  0
   15.2534   -9.9960    1.6140 P   0  0  0  0  0  0  0  0  0  0  0  0
   16.2474  -11.2601    2.9845 P   0  0  0  0  0  0  0  0  0  0  0  0
   18.2354  -11.2601    0.2434 P   0  0  0  0  0  0  0  0  0  0  0  0
   15.2534  -11.2601    1.1271 P   0  0  0  0  0  0  0  0  0  0  0  0
   16.2474   -9.9960    5.2386 P   0  0  0  0  0  0  0  0  0  0  0  0
   17.2414   -9.9960    4.3550 P   0  0  0  0  0  0  0  0  0  0  0  0
   17.2414  -11.2601    3.8681 P   0  0  0  0  0  0  0  0  0  0  0  0
   18.2354   -9.9960    5.2386 P   0  0  0  0  0  0  0  0  0  0  0  0
   15.2534   -9.9960    4.3550 P   0  0  0  0  0  0  0  0  0  0  0  0
   16.2474  -11.2601    5.7255 P   0  0  0  0  0  0  0  0  0  0  0  0
   18.2354  -11.2601    2.9845 P   0  0  0  0  0  0  0  0  0  0  0  0
   15.2534  -11.2601    3.8681 P   0  0  0  0  0  0  0  0  0  0  0  0
   18.2354   -9.9960   -0.2434 P   0  0  0  0  0  0  0  0  0  0  0  0
   19.2294   -9.9960   -1.1271 P   0  0  0  0  0  0  0  0  0  0  0  0
   18.2354  -11.2601   -2.4976 P   0  0  0  0  0  0  0  0  0  0  0  0
   19.2294  -11.2601   -1.6140 P   0  0  0  0  0  0  0  0  0  0  0  0
   18.2354   -9.9960   -2.9845 P   0  0  0  0  0  0  0  0  0  0  0  0
   20.2235   -9.9960   -0.2434 P   0  0  0  0  0  0  0  0  0  0  0  0
   17.2414   -9.9960   -1.1271 P   0  0  0  0  0  0  0  0  0  0  0  0
   20.2235  -11.2601   -2.4976 P   0  0  0  0  0  0  0  0  0  0  0  0
   17.2414  -11.2601   -1.6140 P   0  0  0  0  0  0  0  0  0  0  0  0
   19.2294   -9.9960    1.6140 P   0  0  0  0  0  0  0  0  0  0  0  0
   19.2294  -11.2601    1.1271 P   0  0  0  0  0  0  0  0  0  0  0  0
   20.2235   -9.9960    2.4976 P   0  0  0  0  0  0  0  0  0  0  0  0
   20.2235  -11.2601    0.2434 P   0  0  0  0  0  0  0  0  0  0  0  0
   19.2294   -9.9960    4.3550 P   0  0  0  0  0  0  0  0  0  0  0  0
   19.2294  -11.2601    3.8681 P   0  0  0  0  0  0  0  0  0  0  0  0
   20.2235   -9.9960    5.2386 P   0  0  0  0  0  0  0  0  0  0  0  0
   18.2354  -11.2601    5.7255 P   0  0  0  0  0  0  0  0  0  0  0  0
   20.2235  -11.2601    2.9845 P   0  0  0  0  0  0  0  0  0  0  0  0
   21.2175   -9.9960   -1.1271 P   0  0  0  0  0  0  0  0  0  0  0  0
   21.2175  -11.2601   -1.6140 P   0  0  0  0  0  0  0  0  0  0  0  0
   20.2235   -9.9960   -2.9845 P   0  0  0  0  0  0  0  0  0  0  0  0
   22.2115   -9.9960   -0.2434 P   0  0  0  0  0  0  0  0  0  0  0  0
   22.2115  -11.2601   -2.4976 P   0  0  0  0  0  0  0  0  0  0  0  0
   21.2175   -9.9960    1.6140 P   0  0  0  0  0  0  0  0  0  0  0  0
   21.2175  -11.2601    1.1271 P   0  0  0  0  0  0  0  0  0  0  0  0
   22.2115   -9.9960    2.4976 P   0  0  0  0  0  0  0  0  0  0  0  0
   22.2115  -11.2601    0.2434 P   0  0  0  0  0  0  0  0  0  0  0  0
   21.2175   -9.9960    4.3550 P   0  0  0  0  0  0  0  0  0  0  0  0
   21.2175  -11.2601    3.8681 P   0  0  0  0  0  0  0  0  0  0  0  0
   22.2115   -9.9960    5.2386 P   0  0  0  0  0  0  0  0  0  0  0  0
   20.2235  -11.2601    5.7255 P   0  0  0  0  0  0  0  0  0  0  0  0
   22.2115  -11.2601    2.9845 P   0  0  0  0  0  0  0  0  0  0  0  0
   23.2055   -9.9960    1.6140 P   0  0  0  0  0  0  0  0  0  0  0  0
   23.2055  -11.2601    1.1271 P   0  0  0  0  0  0  0  0  0  0  0  0
   24.1996   -9.9960    2.4976 P   0  0  0  0  0  0  0  0  0  0  0  0
   24.1996  -11.2601    0.2434 P   0  0  0  0  0  0  0  0  0  0  0  0
   23.2055   -9.9960    4.3550 P   0  0  0  0  0  0  0  0  0  0  0  0
   23.2055  -11.2601    3.8681 P   0  0  0  0  0  0  0  0  0  0  0  0
   24.1996   -9.9960    5.2386 P   0  0  0  0  0  0  0  0  0  0  0  0
   22.2115  -11.2601    5.7255 P   0  0  0  0  0  0  0  0  0  0  0  0
   24.1996  -11.2601    2.9845 P   0  0  0  0  0  0  0  0  0  0  0  0
   16.2474   -3.4023    2.4976 P   0  0  0  0  0  0  0  0  0  0  0  0
   17.2414   -3.4023    1.6140 P   0  0  0  0  0  0  0  0  0  0  0  0
   16.2474   -4.6664    0.2434 P   0  0  0  0  0  0  0  0  0  0  0  0
   17.2414   -4.6664    1.1271 P   0  0  0  0  0  0  0  0  0  0  0  0
   16.2474   -3.4023   -0.2434 P   0  0  0  0  0  0  0  0  0  0  0  0
   18.2354   -3.4023    2.4976 P   0  0  0  0  0  0  0  0  0  0  0  0
   15.2534   -3.4023    1.6140 P   0  0  0  0  0  0  0  0  0  0  0  0
   16.2474   -4.6664    2.9845 P   0  0  0  0  0  0  0  0  0  0  0  0
   18.2354   -4.6664    0.2434 P   0  0  0  0  0  0  0  0  0  0  0  0
   15.2534   -4.6664    1.1271 P   0  0  0  0  0  0  0  0  0  0  0  0
   16.2474   -3.4023    5.2386 P   0  0  0  0  0  0  0  0  0  0  0  0
   17.2414   -3.4023    4.3550 P   0  0  0  0  0  0  0  0  0  0  0  0
   17.2414   -4.6664    3.8681 P   0  0  0  0  0  0  0  0  0  0  0  0
   18.2354   -3.4023    5.2386 P   0  0  0  0  0  0  0  0  0  0  0  0
   15.2534   -3.4023    4.3550 P   0  0  0  0  0  0  0  0  0  0  0  0
   16.2474   -4.6664    5.7255 P   0  0  0  0  0  0  0  0  0  0  0  0
   18.2354   -4.6664    2.9845 P   0  0  0  0  0  0  0  0  0  0  0  0
   15.2534   -4.6664    3.8681 P   0  0  0  0  0  0  0  0  0  0  0  0
   18.2354   -3.4023   -0.2434 P   0  0  0  0  0  0  0  0  0  0  0  0
   19.2294   -3.4023   -1.1271 P   0  0  0  0  0  0  0  0  0  0  0  0
   18.2354   -4.6664   -2.4976 P   0  0  0  0  0  0  0  0  0  0  0  0
   19.2294   -4.6664   -1.6140 P   0  0  0  0  0  0  0  0  0  0  0  0
   18.2354   -3.4023   -2.9845 P   0  0  0  0  0  0  0  0  0  0  0  0
   20.2235   -3.4023   -0.2434 P   0  0  0  0  0  0  0  0  0  0  0  0
   17.2414   -3.4023   -1.1271 P   0  0  0  0  0  0  0  0  0  0  0  0
   20.2235   -4.6664   -2.4976 P   0  0  0  0  0  0  0  0  0  0  0  0
   17.2414   -4.6664   -1.6140 P   0  0  0  0  0  0  0  0  0  0  0  0
   19.2294   -3.4023    1.6140 P   0  0  0  0  0  0  0  0  0  0  0  0
   19.2294   -4.6664    1.1271 P   0  0  0  0  0  0  0  0  0  0  0  0
   20.2235   -3.4023    2.4976 P   0  0  0  0  0  0  0  0  0  0  0  0
   20.2235   -4.6664    0.2434 P   0  0  0  0  0  0  0  0  0  0  0  0
   19.2294   -3.4023    4.3550 P   0  0  0  0  0  0  0  0  0  0  0  0
   19.2294   -4.6664    3.8681 P   0  0  0  0  0  0  0  0  0  0  0  0
   20.2235   -3.4023    5.2386 P   0  0  0  0  0  0  0  0  0  0  0  0
   18.2354   -4.6664    5.7255 P   0  0  0  0  0  0  0  0  0  0  0  0
   20.2235   -4.6664    2.9845 P   0  0  0  0  0  0  0  0  0  0  0  0
   21.2175   -3.4023   -1.1271 P   0  0  0  0  0  0  0  0  0  0  0  0
   21.2175   -4.6664   -1.6140 P   0  0  0  0  0  0  0  0  0  0  0  0
   20.2235   -3.4023   -2.9845 P   0  0  0  0  0  0  0  0  0  0  0  0
   22.2115   -3.4023   -0.2434 P   0  0  0  0  0  0  0  0  0  0  0  0
   22.2115   -4.6664   -2.4976 P   0  0  0  0  0  0  0  0  0  0  0  0
   21.2175   -3.4023    1.6140 P   0  0  0  0  0  0  0  0  0  0  0  0
   21.2175   -4.6664    1.1271 P   0  0  0  0  0  0  0  0  0  0  0  0
   22.2115   -3.4023    2.4976 P   0  0  0  0  0  0  0  0  0  0  0  0
   22.2115   -4.6664    0.2434 P   0  0  0  0  0  0  0  0  0  0  0  0
   21.2175   -3.4023    4.3550 P   0  0  0  0  0  0  0  0  0  0  0  0
   21.2175   -4.6664    3.8681 P   0  0  0  0  0  0  0  0  0  0  0  0
   22.2115   -3.4023    5.2386 P   0  0  0  0  0  0  0  0  0  0  0  0
   20.2235   -4.6664    5.7255 P   0  0  0  0  0  0  0  0  0  0  0  0
   22.2115   -4.6664    2.9845 P   0  0  0  0  0  0  0  0  0  0  0  0
   23.2055   -3.4023    1.6140 P   0  0  0  0  0  0  0  0  0  0  0  0
   23.2055   -4.6664    1.1271 P   0  0  0  0  0  0  0  0  0  0  0  0
   24.1996   -3.4023    2.4976 P   0  0  0  0  0  0  0  0  0  0  0  0
   24.1996   -4.6664    0.2434 P   0  0  0  0  0  0  0  0  0  0  0  0
   23.2055   -3.4023    4.3550 P   0  0  0  0  0  0  0  0  0  0  0  0
   23.2055   -4.6664    3.8681 P   0  0  0  0  0  0  0  0  0  0  0  0
   24.1996   -3.4023    5.2386 P   0  0  0  0  0  0  0  0  0  0  0  0
   22.2115   -4.6664    5.7255 P   0  0  0  0  0  0  0  0  0  0  0  0
   24.1996   -4.6664    2.9845 P   0  0  0  0  0  0  0  0  0  0  0  0
   17.2414  -14.5570    2.9845 P   0  0  0  0  0  0  0  0  0  0  0  0
   16.2474  -14.5570    3.8681 P   0  0  0  0  0  0  0  0  0  0  0  0
   17.2414  -13.2929    2.4976 P   0  0  0  0  0  0  0  0  0  0  0  0
   16.2474  -13.2929    1.6140 P   0  0  0  0  0  0  0  0  0  0  0  0
   15.2534  -14.5570    2.9845 P   0  0  0  0  0  0  0  0  0  0  0  0
   16.2474  -14.5570    1.1271 P   0  0  0  0  0  0  0  0  0  0  0  0
   18.2354  -14.5570    3.8681 P   0  0  0  0  0  0  0  0  0  0  0  0
   15.2534  -13.2929    2.4976 P   0  0  0  0  0  0  0  0  0  0  0  0
   16.2474  -13.2929    4.3550 P   0  0  0  0  0  0  0  0  0  0  0  0
   18.2354  -13.2929    1.6140 P   0  0  0  0  0  0  0  0  0  0  0  0
   19.2294  -14.5570    0.2434 P   0  0  0  0  0  0  0  0  0  0  0  0
   18.2354  -14.5570    1.1271 P   0  0  0  0  0  0  0  0  0  0  0  0
   19.2294  -13.2929   -0.2434 P   0  0  0  0  0  0  0  0  0  0  0  0
   18.2354  -13.2929   -1.1271 P   0  0  0  0  0  0  0  0  0  0  0  0
   17.2414  -14.5570    0.2434 P   0  0  0  0  0  0  0  0  0  0  0  0
   18.2354  -14.5570   -1.6140 P   0  0  0  0  0  0  0  0  0  0  0  0
   20.2235  -14.5570    1.1271 P   0  0  0  0  0  0  0  0  0  0  0  0
   17.2414  -13.2929   -0.2434 P   0  0  0  0  0  0  0  0  0  0  0  0
   20.2235  -13.2929   -1.1271 P   0  0  0  0  0  0  0  0  0  0  0  0
   19.2294  -14.5570    2.9845 P   0  0  0  0  0  0  0  0  0  0  0  0
   19.2294  -13.2929    2.4976 P   0  0  0  0  0  0  0  0  0  0  0  0
   20.2235  -14.5570    3.8681 P   0  0  0  0  0  0  0  0  0  0  0  0
   18.2354  -13.2929    4.3550 P   0  0  0  0  0  0  0  0  0  0  0  0
   20.2235  -13.2929    1.6140 P   0  0  0  0  0  0  0  0  0  0  0  0
   21.2175  -14.5570    0.2434 P   0  0  0  0  0  0  0  0  0  0  0  0
   21.2175  -13.2929   -0.2434 P   0  0  0  0  0  0  0  0  0  0  0  0
   20.2235  -14.5570   -1.6140 P   0  0  0  0  0  0  0  0  0  0  0  0
   22.2115  -14.5570    1.1271 P   0  0  0  0  0  0  0  0  0  0  0  0
   22.2115  -13.2929   -1.1271 P   0  0  0  0  0  0  0  0  0  0  0  0
   21.2175  -14.5570    2.9845 P   0  0  0  0  0  0  0  0  0  0  0  0
   21.2175  -13.2929    2.4976 P   0  0  0  0  0  0  0  0  0  0  0  0
   22.2115  -14.5570    3.8681 P   0  0  0  0  0  0  0  0  0  0  0  0
   20.2235  -13.2929    4.3550 P   0  0  0  0  0  0  0  0  0  0  0  0
   22.2115  -13.2929    1.6140 P   0  0  0  0  0  0  0  0  0  0  0  0
   23.2055  -14.5570    2.9845 P   0  0  0  0  0  0  0  0  0  0  0  0
   23.2055  -13.2929    2.4976 P   0  0  0  0  0  0  0  0  0  0  0  0
   24.1996  -14.5570    3.8681 P   0  0  0  0  0  0  0  0  0  0  0  0
   22.2115  -13.2929    4.3550 P   0  0  0  0  0  0  0  0  0  0  0  0
   24.1996  -13.2929    1.6140 P   0  0  0  0  0  0  0  0  0  0  0  0
   17.2414   -7.9633    0.2434 P   0  0  0  0  0  0  0  0  0  0  0  0
   16.2474   -7.9633    1.1271 P   0  0  0  0  0  0  0  0  0  0  0  0
   17.2414   -6.6992   -0.2434 P   0  0  0  0  0  0  0  0  0  0  0  0
   16.2474   -6.6992   -1.1271 P   0  0  0  0  0  0  0  0  0  0  0  0
   15.2534   -7.9633    0.2434 P   0  0  0  0  0  0  0  0  0  0  0  0
   16.2474   -7.9633   -1.6140 P   0  0  0  0  0  0  0  0  0  0  0  0
   18.2354   -7.9633    1.1271 P   0  0  0  0  0  0  0  0  0  0  0  0
   15.2534   -6.6992   -0.2434 P   0  0  0  0  0  0  0  0  0  0  0  0
   16.2474   -6.6992    1.6140 P   0  0  0  0  0  0  0  0  0  0  0  0
   18.2354   -6.6992   -1.1271 P   0  0  0  0  0  0  0  0  0  0  0  0
   17.2414   -7.9633    2.9845 P   0  0  0  0  0  0  0  0  0  0  0  0
   16.2474   -7.9633    3.8681 P   0  0  0  0  0  0  0  0  0  0  0  0
   17.2414   -6.6992    2.4976 P   0  0  0  0  0  0  0  0  0  0  0  0
   15.2534   -7.9633    2.9845 P   0  0  0  0  0  0  0  0  0  0  0  0
   18.2354   -7.9633    3.8681 P   0  0  0  0  0  0  0  0  0  0  0  0
   15.2534   -6.6992    2.4976 P   0  0  0  0  0  0  0  0  0  0  0  0
   16.2474   -6.6992    4.3550 P   0  0  0  0  0  0  0  0  0  0  0  0
   18.2354   -6.6992    1.6140 P   0  0  0  0  0  0  0  0  0  0  0  0
   19.2294   -7.9633    0.2434 P   0  0  0  0  0  0  0  0  0  0  0  0
   19.2294   -6.6992   -0.2434 P   0  0  0  0  0  0  0  0  0  0  0  0
   18.2354   -7.9633   -1.6140 P   0  0  0  0  0  0  0  0  0  0  0  0
   20.2235   -7.9633    1.1271 P   0  0  0  0  0  0  0  0  0  0  0  0
   20.2235   -6.6992   -1.1271 P   0  0  0  0  0  0  0  0  0  0  0  0
   19.2294   -7.9633    2.9845 P   0  0  0  0  0  0  0  0  0  0  0  0
   19.2294   -6.6992    2.4976 P   0  0  0  0  0  0  0  0  0  0  0  0
   20.2235   -7.9633    3.8681 P   0  0  0  0  0  0  0  0  0  0  0  0
   18.2354   -6.6992    4.3550 P   0  0  0  0  0  0  0  0  0  0  0  0
   20.2235   -6.6992    1.6140 P   0  0  0  0  0  0  0  0  0  0  0  0
   19.2294   -7.9633    5.7255 P   0  0  0  0  0  0  0  0  0  0  0  0
   18.2354   -7.9633    6.6091 P   0  0  0  0  0  0  0  0  0  0  0  0
   19.2294   -6.6992    5.2386 P   0  0  0  0  0  0  0  0  0  0  0  0
   17.2414   -7.9633    5.7255 P   0  0  0  0  0  0  0  0  0  0  0  0
   20.2235   -7.9633    6.6091 P   0  0  0  0  0  0  0  0  0  0  0  0
   17.2414   -6.6992    5.2386 P   0  0  0  0  0  0  0  0  0  0  0  0
   18.2354   -6.6992    7.0960 P   0  0  0  0  0  0  0  0  0  0  0  0
   20.2235   -6.6992    4.3550 P   0  0  0  0  0  0  0  0  0  0  0  0
   21.2175   -7.9633    0.2434 P   0  0  0  0  0  0  0  0  0  0  0  0
   21.2175   -6.6992   -0.2434 P   0  0  0  0  0  0  0  0  0  0  0  0
   20.2235   -7.9633   -1.6140 P   0  0  0  0  0  0  0  0  0  0  0  0
   22.2115   -7.9633    1.1271 P   0  0  0  0  0  0  0  0  0  0  0  0
   22.2115   -6.6992   -1.1271 P   0  0  0  0  0  0  0  0  0  0  0  0
   21.2175   -7.9633    2.9845 P   0  0  0  0  0  0  0  0  0  0  0  0
   21.2175   -6.6992    2.4976 P   0  0  0  0  0  0  0  0  0  0  0  0
   22.2115   -7.9633    3.8681 P   0  0  0  0  0  0  0  0  0  0  0  0
   22.2115   -6.6992    1.6140 P   0  0  0  0  0  0  0  0  0  0  0  0
   21.2175   -7.9633    5.7255 P   0  0  0  0  0  0  0  0  0  0  0  0
   21.2175   -6.6992    5.2386 P   0  0  0  0  0  0  0  0  0  0  0  0
   22.2115   -7.9633    6.6091 P   0  0  0  0  0  0  0  0  0  0  0  0
   20.2235   -6.6992    7.0960 P   0  0  0  0  0  0  0  0  0  0  0  0
   22.2115   -6.6992    4.3550 P   0  0  0  0  0  0  0  0  0  0  0  0
   23.2055   -7.9633    0.2434 P   0  0  0  0  0  0  0  0  0  0  0  0
   23.2055   -6.6992   -0.2434 P   0  0  0  0  0  0  0  0  0  0  0  0
   22.2115   -7.9633   -1.6140 P   0  0  0  0  0  0  0  0  0  0  0  0
   24.1996   -7.9633    1.1271 P   0  0  0  0  0  0  0  0  0  0  0  0
   24.1996   -6.6992   -1.1271 P   0  0  0  0  0  0  0  0  0  0  0  0
   23.2055   -7.9633    2.9845 P   0  0  0  0  0  0  0  0  0  0  0  0
   23.2055   -6.6992    2.4976 P   0  0  0  0  0  0  0  0  0  0  0  0
   24.1996   -7.9633    3.8681 P   0  0  0  0  0  0  0  0  0  0  0  0
   24.1996   -6.6992    1.6140 P   0  0  0  0  0  0  0  0  0  0  0  0
  1  2  1  0  0  0  0
  1  7  1  0  0  0  0
  1  8  1  0  0  0  0
  2  4  1  0  0  0  0
  2  6  1  0  0  0  0
  3  4  1  0  0  0  0
  3  5  1  0  0  0  0
  3 10  1  0  0  0  0
  4  9  1  0  0  0  0
  7 10  1  0  0  0  0
 11 12  1  0  0  0  0
 11 15  1  0  0  0  0
 11 16  1  0  0  0  0
 12 13  1  0  0  0  0
 12 14  1  0  0  0  0
  8 13  1  0  0  0  0
  8 18  1  0  0  0  0
 13 17  1  0  0  0  0
 15 18  1  0  0  0  0
 19 20  1  0  0  0  0
 19 25  1  0  0  0  0
 19  9  1  0  0  0  0
 20 22  1  0  0  0  0
 20 24  1  0  0  0  0
 21 22  1  0  0  0  0
 21 23  1  0  0  0  0
 21 27  1  0  0  0  0
 22 26  1  0  0  0  0
 25 27  1  0  0  0  0
  6 28  1  0  0  0  0
  6 17  1  0  0  0  0
 28 29  1  0  0  0  0
 28 30  1  0  0  0  0
  9 29  1  0  0  0  0
 29 31  1  0  0  0  0
 14 32  1  0  0  0  0
 14 35  1  0  0  0  0
 32 33  1  0  0  0  0
 32 34  1  0  0  0  0
 17 33  1  0  0  0  0
 33 36  1  0  0  0  0
 24 37  1  0  0  0  0
 24 31  1  0  0  0  0
 37 38  1  0  0  0  0
 37 40  1  0  0  0  0
 26 38  1  0  0  0  0
 26 39  1  0  0  0  0
 38 41  1  0  0  0  0
 30 42  1  0  0  0  0
 30 36  1  0  0  0  0
 42 43  1  0  0  0  0
 42 44  1  0  0  0  0
 31 43  1  0  0  0  0
 43 45  1  0  0  0  0
 34 46  1  0  0  0  0
 34 49  1  0  0  0  0
 46 47  1  0  0  0  0
 46 48  1  0  0  0  0
 36 47  1  0  0  0  0
 47 50  1  0  0  0  0
 44 51  1  0  0  0  0
 44 50  1  0  0  0  0
 51 52  1  0  0  0  0
 51 53  1  0  0  0  0
 45 52  1  0  0  0  0
 45 40  1  0  0  0  0
 52 54  1  0  0  0  0
 48 55  1  0  0  0  0
 48 58  1  0  0  0  0
 55 56  1  0  0  0  0
 55 57  1  0  0  0  0
 50 56  1  0  0  0  0
 56 59  1  0  0  0  0
 60 61  1  0  0  0  0
 60 66  1  0  0  0  0
 60 67  1  0  0  0  0
 61 63  1  0  0  0  0
 61 65  1  0  0  0  0
 62 63  1  0  0  0  0
 62 64  1  0  0  0  0
 62 69  1  0  0  0  0
 63 68  1  0  0  0  0
 66 69  1  0  0  0  0
 70 71  1  0  0  0  0
 70 74  1  0  0  0  0
 70 75  1  0  0  0  0
 71 72  1  0  0  0  0
 71 73  1  0  0  0  0
 67 72  1  0  0  0  0
 67 77  1  0  0  0  0
 72 76  1  0  0  0  0
 74 77  1  0  0  0  0
 78 79  1  0  0  0  0
 78 84  1  0  0  0  0
 78 68  1  0  0  0  0
 79 81  1  0  0  0  0
 79 83  1  0  0  0  0
 80 81  1  0  0  0  0
 80 82  1  0  0  0  0
 80 86  1  0  0  0  0
 81 85  1  0  0  0  0
 84 86  1  0  0  0  0
 65 87  1  0  0  0  0
 65 76  1  0  0  0  0
 87 88  1  0  0  0  0
 87 89  1  0  0  0  0
 68 88  1  0  0  0  0
 88 90  1  0  0  0  0
 73 91  1  0  0  0  0
 73 94  1  0  0  0  0
 91 92  1  0  0  0  0
 91 93  1  0  0  0  0
 76 92  1  0  0  0  0
 92 95  1  0  0  0  0
 83 96  1  0  0  0  0
 83 90  1  0  0  0  0
 96 97  1  0  0  0  0
 96 99  1  0  0  0  0
 85 97  1  0  0  0  0
 85 98  1  0  0  0  0
 97 100  1  0  0  0  0
 89 101  1  0  0  0  0
 89 95  1  0  0  0  0
101 102  1  0  0  0  0
101 103  1  0  0  0  0
 90 102  1  0  0  0  0
102 104  1  0  0  0  0
93 105  1  0  0  0  0
93 108  1  0  0  0  0
105 106  1  0  0  0  0
105 107  1  0  0  0  0
95 106  1  0  0  0  0
106 109  1  0  0  0  0
103 110  1  0  0  0  0
103 109  1  0  0  0  0
110 111  1  0  0  0  0
110 112  1  0  0  0  0
104 111  1  0  0  0  0
104 99  1  0  0  0  0
111 113  1  0  0  0  0
107 114  1  0  0  0  0
107 117  1  0  0  0  0
114 115  1  0  0  0  0
114 116  1  0  0  0  0
109 115  1  0  0  0  0
115 118  1  0  0  0  0
119 120  1  0  0  0  0
119 121  1  0  0  0  0
119 125  1  0  0  0  0
120 123  1  0  0  0  0
120 127  1  0  0  0  0
121 122  1  0  0  0  0
121 128  1  0  0  0  0
122 124  1  0  0  0  0
122 126  1  0  0  0  0
123 126  1  0  0  0  0
129 130  1  0  0  0  0
129 131  1  0  0  0  0
129 135  1  0  0  0  0
130 133  1  0  0  0  0
130 128  1  0  0  0  0
131 132  1  0  0  0  0
131 137  1  0  0  0  0
132 134  1  0  0  0  0
132 136  1  0  0  0  0
133 136  1  0  0  0  0
138 125  1  0  0  0  0
138 139  1  0  0  0  0
138 140  1  0  0  0  0
125 141  1  0  0  0  0
139 128  1  0  0  0  0
139 142  1  0  0  0  0
143 135  1  0  0  0  0
143 144  1  0  0  0  0
143 146  1  0  0  0  0
135 142  1  0  0  0  0
144 137  1  0  0  0  0
144 147  1  0  0  0  0
137 145  1  0  0  0  0
148 140  1  0  0  0  0
148 149  1  0  0  0  0
148 150  1  0  0  0  0
140 151  1  0  0  0  0
149 142  1  0  0  0  0
149 152  1  0  0  0  0
153 150  1  0  0  0  0
153 154  1  0  0  0  0
153 155  1  0  0  0  0
150 156  1  0  0  0  0
154 152  1  0  0  0  0
154 157  1  0  0  0  0
152 146  1  0  0  0  0
158 159  1  0  0  0  0
158 160  1  0  0  0  0
158 164  1  0  0  0  0
159 162  1  0  0  0  0
159 166  1  0  0  0  0
160 161  1  0  0  0  0
160 167  1  0  0  0  0
161 163  1  0  0  0  0
161 165  1  0  0  0  0
162 165  1  0  0  0  0
168 169  1  0  0  0  0
168 170  1  0  0  0  0
168 172  1  0  0  0  0
169 171  1  0  0  0  0
169 174  1  0  0  0  0
170 166  1  0  0  0  0
170 175  1  0  0  0  0
166 173  1  0  0  0  0
171 173  1  0  0  0  0
176 164  1  0  0  0  0
176 177  1  0  0  0  0
176 179  1  0  0  0  0
164 175  1  0  0  0  0
177 167  1  0  0  0  0
177 180  1  0  0  0  0
167 178  1  0  0  0  0
181 172  1  0  0  0  0
181 182  1  0  0  0  0
181 183  1  0  0  0  0
172 184  1  0  0  0  0
182 175  1  0  0  0  0
182 185  1  0  0  0  0
186 187  1  0  0  0  0
186 188  1  0  0  0  0
186 190  1  0  0  0  0
187 189  1  0  0  0  0
187 192  1  0  0  0  0
188 184  1  0  0  0  0
188 193  1  0  0  0  0
184 191  1  0  0  0  0
189 191  1  0  0  0  0
194 179  1  0  0  0  0
194 195  1  0  0  0  0
194 197  1  0  0  0  0
179 185  1  0  0  0  0
195 180  1  0  0  0  0
195 198  1  0  0  0  0
180 196  1  0  0  0  0
199 183  1  0  0  0  0
199 200  1  0  0  0  0
199 201  1  0  0  0  0
183 193  1  0  0  0  0
200 185  1  0  0  0  0
200 202  1  0  0  0  0
203 190  1  0  0  0  0
203 204  1  0  0  0  0
203 205  1  0  0  0  0
190 206  1  0  0  0  0
204 193  1  0  0  0  0
204 207  1  0  0  0  0
208 197  1  0  0  0  0
208 209  1  0  0  0  0
208 211  1  0  0  0  0
197 202  1  0  0  0  0
209 198  1  0  0  0  0
209 212  1  0  0  0  0
198 210  1  0  0  0  0
213 201  1  0  0  0  0
213 214  1  0  0  0  0
213 215  1  0  0  0  0
201 207  1  0  0  0  0
214 202  1  0  0  0  0
214 216  1  0  0  0  0