9012304
  --CCDC--043023    3D                              

 90 124  0  0  0  0  0  0  0  0999 V2000
    1.7834    1.7834    3.5667 C      0
    0.8917    0.8917    4.4584 C      0
    1.7834    0.0000    5.3500 C      0
    0.8917    2.6750    2.6750 C      0
    0.8917    0.8917    0.8917 C      0
    1.7833    1.7833    0.0000 C      0
    2.6750    0.8917   -0.8917 C      0
    0.0000    1.7833    1.7833 C      0
   -1.7833    0.0000    1.7833 C      0
   -0.8917    0.8917    2.6750 C      0
   -2.6750   -0.8917    2.6750 C      0
    0.0000    0.0000    0.0000 C      0
   -0.8917   -0.8917    0.8917 C      0
    0.8917   -0.8917   -0.8917 C      0
   -1.7833    1.7834    3.5667 C      0
   -0.8917    2.6750    4.4584 C      0
   -1.7833   -1.7833    0.0000 C      0
   -1.7833   -1.7833    3.5667 C      0
    1.7833   -1.7833    0.0000 C      0
   -1.7833    3.5667    5.3500 C      0
    1.7833   -0.0000   -1.7833 C      0
    1.7833    0.0000    1.7833 C      0
    1.7834    3.5667    1.7833 C      0
   -3.5667   -1.7833    1.7833 C      0
   -0.0000   -1.7833   -1.7833 C      0
    0.0000   -1.7833    1.7833 C      0
    0.0000    1.7834    5.3500 C      0
    3.5667    1.7833   -1.7833 C      0
   -3.5667    0.0000    3.5667 C      0
    0.0000    0.0000    3.5667 C      0
    0.0000    3.5667    3.5667 C      0
    3.5667    0.0000    0.0000 C      0
   -2.6750    0.8917    0.8917 C      0
   -2.6750    0.8917    4.4584 C      0
   -2.6750    2.6750    2.6750 C      0
    0.8917   -0.8917    6.2417 C      0
    0.8917    2.6750   -0.8917 C      0
   -0.8917    0.8917   -0.8917 C      0
    2.6750    0.8917    2.6750 C      0
    2.6750    0.8917    6.2417 C      0
   -0.8917    2.6750    0.8917 C      0
    2.6750   -0.8917    4.4584 C      0
    2.6750    2.6750    0.8917 C      0
    2.6750    2.6750    4.4584 C      0
    0.8917   -0.8917    2.6750 C      0
   -0.8917   -2.6750    2.6750 C      0
    1.7834   -1.7833    3.5667 C      0
   -1.7833    1.7833    0.0000 C      0
    3.5667   -1.7833    5.3500 C      0
    0.0000    1.7833   -1.7833 C      0
    3.5667    1.7833    1.7833 C      0
   -1.7834   -3.5667    1.7833 C      0
   -1.7833   -0.0000   -1.7833 C      0
    1.7834    3.5667   -1.7833 C      0
    0.0000   -3.5667    3.5667 C      0
    3.5667    0.0000    3.5667 C      0
    0.0000    3.5667    0.0000 C      0
    0.8917   -2.6750    0.8917 C      0
    0.8917   -2.6750    4.4584 C      0
    2.6750   -2.6750    2.6750 C      0
   -0.8917    0.8917    6.2417 C      0
    0.8917    2.6750    6.2417 C      0
    2.6750   -0.8917    0.8917 C      0
   -1.7833    3.5667    1.7833 C      0
    2.6750   -2.6750   -0.8917 C      0
   -0.8917    4.4584    2.6750 C      0
    4.4584    0.8917    4.4584 C      0
    0.8917    4.4584    4.4584 C      0
   -2.6750    4.4584    0.8917 C      0
    4.4584   -0.8917    2.6750 C      0
    3.5667   -1.7833    1.7833 C      0
    3.5667    3.5667    0.0000 C      0
   -3.5667    1.7834    5.3500 C      0
   -1.7833    0.0000    5.3500 C      0
    4.4584    2.6750    2.6750 C      0
   -0.8917   -0.8917    4.4584 C      0
    4.4584   -0.8917   -0.8917 C      0
    4.4584    0.8917    0.8917 C      0
    5.3500    1.7834    3.5667 C      0
    5.3500    3.5667    1.7833 C      0
    3.5667    3.5667    3.5667 C      0
    2.6750    4.4584    2.6750 C      0
    1.7834    5.3500    3.5667 C      0
    3.5667    5.3500    1.7833 C      0
    0.0000    5.3500    5.3500 C      0
    1.7834    3.5667    5.3500 C      0
    0.8917    4.4584    0.8917 C      0
   -0.8917    4.4584   -0.8917 C      0
    4.4584   -2.6750    0.8917 C      0
    5.3500    0.0000    5.3500 C      0
  1  2  1
  1  4  1
  1 39  1
  1 44  1
  2  3  1
  2 27  1
  2 30  1
  3 36  1
  3 40  1
  3 42  1
  4  8  1
  4 23  1
  4 31  1
  5  6  1
  5  8  1
  5 12  1
  5 22  1
  6  7  1
  6 37  1
  6 43  1
  7 21  1
  7 28  1
  7 32  1
  8 10  1
  8 41  1
  9 10  1
  9 11  1
  9 13  1
  9 33  1
 10 15  1
 10 30  1
 11 18  1
 11 24  1
 11 29  1
 12 13  1
 12 14  1
 12 38  1
 13 17  1
 13 26  1
 14 19  1
 14 21  1
 14 25  1
 15 16  1
 15 34  1
 15 35  1
 16 20  1
 16 27  1
 16 31  1
 22 39  1
 23 43  1
 29 34  1
 27 61  1
 27 62  1
 39 51  1
 39 56  1
 37 50  1
 37 54  1
 37 57  1
 22 45  1
 22 63  1
 26 45  1
 26 46  1
 26 58  1
 45 47  1
 45 30  1
 46 18  1
 46 52  1
 46 55  1
 38 48  1
 38 50  1
 38 53  1
 47 42  1
 47 59  1
 47 60  1
 42 49  1
 42 56  1
 51 43  1
 55 59  1
 41 64  1
 41 57  1
 41 48  1
 64 66  1
 64 69  1
 64 35  1
 56 67  1
 56 70  1
 31 66  1
 31 68  1
 63 19  1
 63 71  1
 63 32  1
 19 65  1
 19 58  1
 70 71  1
 34 73  1
 34 74  1
 43 72  1
 51 75  1
 51 78  1
 75 79  1
 75 80  1
 75 81  1
 30 76  1
 32 77  1
 32 78  1
 60 71  1
 68 83  1
 68 85  1
 68 86  1
 23 82  1
 23 87  1
 82 81  1
 82 83  1
 82 84  1
 79 67  1
 71 89  1
 57 88  1
 57 87  1
 67 90  1
 48 33  1