9011580
  --CCDC--050123    3D                              

 60 90  0  0  0  0  0  0  0  0999 V2000
    3.2210   -0.4563    1.4181 C      0
    3.4639   -0.7582    0.0856 C      0
    2.9219    0.9070    1.8099 C      0
    2.9008   -1.9671   -0.5055 C      0
    2.4010   -1.3521    2.2325 C      0
    3.1395    1.5754   -0.5209 C      0
    3.4245    0.2696   -0.8930 C      0
    2.8826    1.8941    0.8649 C      0
    2.1103   -2.8320    0.2836 C      0
    1.8576   -2.5175    1.6652 C      0
   -1.4181   -3.2210    0.4563 C      0
   -0.0856   -3.4639    0.7582 C      0
   -1.8099   -2.9219   -0.9070 C      0
    0.5055   -2.9008    1.9671 C      0
   -2.2325   -2.4010    1.3521 C      0
    0.5209   -3.1395   -1.5754 C      0
    0.8930   -3.4245   -0.2696 C      0
   -0.8649   -2.8826   -1.8941 C      0
   -0.2836   -2.1103    2.8320 C      0
   -1.6652   -1.8576    2.5175 C      0
   -0.4563    1.4181    3.2210 C      0
   -0.7582    0.0856    3.4639 C      0
    0.9070    1.8099    2.9219 C      0
   -1.9671   -0.5055    2.9008 C      0
   -1.3521    2.2325    2.4010 C      0
    1.5754   -0.5209    3.1395 C      0
    0.2696   -0.8930    3.4245 C      0
    1.8941    0.8649    2.8826 C      0
   -2.8320    0.2836    2.1103 C      0
   -2.5175    1.6652    1.8576 C      0
    1.4181    3.2210   -0.4563 C      0
    0.0856    3.4639   -0.7582 C      0
    1.8099    2.9219    0.9070 C      0
   -0.5055    2.9008   -1.9671 C      0
    2.2325    2.4010   -1.3521 C      0
   -0.5209    3.1395    1.5754 C      0
   -0.8930    3.4245    0.2696 C      0
    0.8649    2.8826    1.8941 C      0
    0.2836    2.1103   -2.8320 C      0
    1.6652    1.8576   -2.5175 C      0
    0.4563   -1.4181   -3.2210 C      0
    0.7582   -0.0856   -3.4639 C      0
   -0.9070   -1.8099   -2.9219 C      0
    1.9671    0.5055   -2.9008 C      0
    1.3521   -2.2325   -2.4010 C      0
   -1.5754    0.5209   -3.1395 C      0
   -0.2696    0.8930   -3.4245 C      0
   -1.8941   -0.8649   -2.8826 C      0
    2.8320   -0.2836   -2.1103 C      0
    2.5175   -1.6652   -1.8576 C      0
   -3.2210    0.4563   -1.4181 C      0
   -3.4639    0.7582   -0.0856 C      0
   -2.9219   -0.9070   -1.8099 C      0
   -2.9008    1.9671    0.5055 C      0
   -2.4010    1.3521   -2.2325 C      0
   -3.1395   -1.5754    0.5209 C      0
   -3.4245   -0.2696    0.8930 C      0
   -2.8826   -1.8941   -0.8649 C      0
   -2.1103    2.8320   -0.2836 C      0
   -1.8576    2.5175   -1.6652 C      0
  1  2  1
  1  3  1
  1  5  1
  2  4  1
  2  7  1
  3  8  1
  3 28  1
  4  9  1
  4 50  1
  5 10  1
  5 26  1
  6  7  1
  6  8  1
  6 35  1
  7 49  1
  8 33  1
  9 10  1
  9 17  1
 10 14  1
 11 12  1
 11 13  1
 11 15  1
 12 14  1
 12 17  1
 13 18  1
 13 58  1
 14 19  1
 15 20  1
 15 56  1
 16 17  1
 16 18  1
 16 45  1
 18 43  1
 19 20  1
 19 27  1
 20 24  1
 21 22  1
 21 23  1
 21 25  1
 22 24  1
 22 27  1
 23 28  1
 23 38  1
 24 29  1
 25 30  1
 25 36  1
 26 27  1
 26 28  1
 29 30  1
 29 57  1
 30 54  1
 31 32  1
 31 33  1
 31 35  1
 32 34  1
 32 37  1
 33 38  1
 34 39  1
 34 60  1
 35 40  1
 36 37  1
 36 38  1
 37 59  1
 39 40  1
 39 47  1
 40 44  1
 41 42  1
 41 43  1
 41 45  1
 42 44  1
 42 47  1
 43 48  1
 44 49  1
 45 50  1
 46 47  1
 46 48  1
 46 55  1
 48 53  1
 49 50  1
 51 52  1
 51 53  1
 51 55  1
 52 54  1
 52 57  1
 53 58  1
 54 59  1
 55 60  1
 56 57  1
 56 58  1
 59 60  1
M  END
$$$$
