global
  --CCDC--043023    3D                              

 12 18  0  0  0  0  0  0  0  0999 V2000
    8.4484    2.0645    0.0262 P      0
    9.4211    0.2163   -0.5444 P      0
   10.6038    1.9068    0.1197 P      0
    9.3966    0.8198    1.5429 P      0
    7.5874    5.2807    1.8834 P      0
    7.8061    5.8239    3.9703 P      0
    8.5989    3.9420    3.2740 P      0
    6.4559    4.2245    3.3960 P      0
    0.8830    2.9827    3.3465 P      0
    2.4897    4.2970    3.9763 P      0
    1.8685    2.6606    5.2518 P      0
    2.9225    2.2586    3.3893 P      0
  1  2  1
  1  3  1
  1  4  1
  2  3  1
  2  4  1
  3  4  1
  5  6  1
  5  7  1
  5  8  1
  6  7  1
  6  8  1
  7  8  1
  9 10  1
  9 11  1
  9 12  1
 10 11  1
 10 12  1
 11 12  1
