
  ACD/LABS06202300383D

 45 46  0  0  0  0  0  0  0  0  1 V2000
   16.9066   -6.8787   -1.0580 C   0  0  0  0  0  0  0  0  0  0  0  0
   17.5622   -8.0930   -1.2020 C   0  0  0  0  0  0  0  0  0  0  0  0
   15.5511   -6.8609   -0.7725 C   0  0  0  0  0  0  0  0  0  0  0  0
   16.8613   -9.2818   -1.0569 C   0  0  0  0  0  0  0  0  0  0  0  0
   14.8511   -8.0478   -0.6285 C   0  0  0  0  0  0  0  0  0  0  0  0
   15.5049   -9.2623   -0.7689 C   0  0  0  0  0  0  0  0  0  0  0  0
   17.6265   -5.5958   -1.1961 C   0  0  0  0  0  0  0  0  0  0  0  0
   19.0240   -5.5364   -1.7724 C   0  0  0  0  0  0  0  0  0  0  0  0
   19.7673   -4.3826   -1.1387 C   0  0  0  0  0  0  0  0  0  0  0  0
   21.2369   -4.4064   -1.0410 C   0  0  0  0  0  0  0  0  0  0  0  0
   21.9583   -3.2484   -1.2742 C   0  0  0  0  0  0  0  0  0  0  0  0
   21.9006   -5.5777   -0.7106 C   0  0  0  0  0  0  0  0  0  0  0  0
   23.3401   -3.2619   -1.1769 C   0  0  0  0  0  0  0  0  0  0  0  0
   23.2827   -5.5890   -0.6151 C   0  0  0  0  0  0  0  0  0  0  0  0
   24.0113   -4.4306   -0.8452 C   0  0  0  0  0  0  0  0  0  0  0  0
   17.0887   -4.5723   -0.8423 O   0  0  0  0  0  0  0  0  0  0  0  0
   19.1489   -3.4392   -0.7002 O   0  0  0  0  0  0  0  0  0  0  0  0
   25.5369   -4.4346   -0.7474 C   0  0  0  0  0  0  0  0  0  0  0  0
   26.0459   -5.6732    0.0000 C   0  0  0  0  0  0  0  0  0  0  0  0
   26.0207   -3.1826   -0.0074 C   0  0  0  0  0  0  0  0  0  0  0  0
   26.1258   -4.4429   -2.1608 C   0  0  0  0  0  0  0  0  0  0  0  0
   14.8206  -10.4340   -0.6206 O   0  0  0  0  0  0  0  0  0  0  0  0
   13.5594  -10.6475   -1.2424 C   0  0  0  0  0  0  0  0  0  0  0  0
   18.6486   -8.1135   -1.4335 H   0  0  0  0  0  0  0  0  0  0  0  0
   15.0228   -5.8902   -0.6586 H   0  0  0  0  0  0  0  0  0  0  0  0
   17.3883  -10.2531   -1.1718 H   0  0  0  0  0  0  0  0  0  0  0  0
   13.7641   -8.0257   -0.4002 H   0  0  0  0  0  0  0  0  0  0  0  0
   19.5573   -6.4867   -1.5561 H   0  0  0  0  0  0  0  0  0  0  0  0
   18.9679   -5.3845   -2.8716 H   0  0  0  0  0  0  0  0  0  0  0  0
   21.4283   -2.3086   -1.5392 H   0  0  0  0  0  0  0  0  0  0  0  0
   21.3242   -6.5086   -0.5221 H   0  0  0  0  0  0  0  0  0  0  0  0
   23.9139   -2.3296   -1.3662 H   0  0  0  0  0  0  0  0  0  0  0  0
   23.8092   -6.5315   -0.3528 H   0  0  0  0  0  0  0  0  0  0  0  0
   26.3627   -6.4443   -0.7345 H   0  0  0  0  0  0  0  0  0  0  0  0
   26.9113   -5.3911    0.6372 H   0  0  0  0  0  0  0  0  0  0  0  0
   25.2321   -6.0811    0.6372 H   0  0  0  0  0  0  0  0  0  0  0  0
   26.3198   -2.4086   -0.7463 H   0  0  0  0  0  0  0  0  0  0  0  0
   25.1997   -2.7888    0.6294 H   0  0  0  0  0  0  0  0  0  0  0  0
   26.8931   -3.4431    0.6294 H   0  0  0  0  0  0  0  0  0  0  0  0
   25.3011   -4.4313   -2.9053 H   0  0  0  0  0  0  0  0  0  0  0  0
   26.7637   -3.5440   -2.3011 H   0  0  0  0  0  0  0  0  0  0  0  0
   26.7383   -5.3592   -2.3011 H   0  0  0  0  0  0  0  0  0  0  0  0
   13.6829  -10.6265   -2.3464 H   0  0  0  0  0  0  0  0  0  0  0  0
   13.1572  -11.6361   -0.9335 H   0  0  0  0  0  0  0  0  0  0  0  0
   12.8543   -9.8462   -0.9335 H   0  0  0  0  0  0  0  0  0  0  0  0
  1  2  1  0  0  0  0
  1  3  2  0  0  0  0
  2  4  2  0  0  0  0
  3  5  1  0  0  0  0
  4  6  1  0  0  0  0
  5  6  2  0  0  0  0
  7  1  1  0  0  0  0
  8  7  1  0  0  0  0
  9  8  1  0  0  0  0
 10 11  1  0  0  0  0
 10 12  2  0  0  0  0
 11 13  2  0  0  0  0
 12 14  1  0  0  0  0
 13 15  1  0  0  0  0
 14 15  2  0  0  0  0
  9 10  1  0  0  0  0
  7 16  2  0  0  0  0
  9 17  2  0  0  0  0
 15 18  1  0  0  0  0
 18 19  1  0  0  0  0
 18 20  1  0  0  0  0
 18 21  1  0  0  0  0
  6 22  1  0  0  0  0
 22 23  1  0  0  0  0
 24  2  1  0  0  0  0
 25  3  1  0  0  0  0
 26  4  1  0  0  0  0
 27  5  1  0  0  0  0
 28  8  1  0  0  0  0
 29  8  1  0  0  0  0
 30 11  1  0  0  0  0
 31 12  1  0  0  0  0
 32 13  1  0  0  0  0
 33 14  1  0  0  0  0
 34 19  1  0  0  0  0
 35 19  1  0  0  0  0
 36 19  1  0  0  0  0
 37 20  1  0  0  0  0
 38 20  1  0  0  0  0
 39 20  1  0  0  0  0
 40 21  1  0  0  0  0
 41 21  1  0  0  0  0
 42 21  1  0  0  0  0
 43 23  1  0  0  0  0
 44 23  1  0  0  0  0
 45 23  1  0  0  0  0
M  END
