
  ACD/LABS06192323463D

 96 97  0  0  0  0  0  0  0  0  1 V2000
    8.5884   -6.8842   -0.4455 C   0  0  0  0  0  0  0  0  0  0  0  0
   31.2239   -5.7822    0.5627 C   0  0  0  0  0  0  0  0  0  0  0  0
    7.3897   -6.2396   -0.3675 C   0  0  0  0  0  0  0  0  0  0  0  0
   32.1621   -6.6743    0.9903 C   0  0  0  0  0  0  0  0  0  0  0  0
    7.4980   -4.9387   -0.6347 C   0  0  0  0  0  0  0  0  0  0  0  0
   32.4164   -7.6138    0.0802 C   0  0  0  0  0  0  0  0  0  0  0  0
    9.5754   -6.1789    0.1644 C   0  0  0  0  0  0  0  0  0  0  0  0
   30.1754   -6.4066   -0.0324 C   0  0  0  0  0  0  0  0  0  0  0  0
    8.3220   -4.3588    0.2413 C   0  0  0  0  0  0  0  0  0  0  0  0
   31.3043   -8.3014   -0.1905 C   0  0  0  0  0  0  0  0  0  0  0  0
    9.4351   -5.0425    0.4915 C   0  0  0  0  0  0  0  0  0  0  0  0
   30.2154   -7.5542   -0.3481 C   0  0  0  0  0  0  0  0  0  0  0  0
    8.9050   -7.0707   -1.7518 C   0  0  0  0  0  0  0  0  0  0  0  0
    8.3977   -8.1001    0.1305 C   0  0  0  0  0  0  0  0  0  0  0  0
   31.7995   -4.9242   -0.3171 C   0  0  0  0  0  0  0  0  0  0  0  0
   30.8443   -5.0817    1.6637 C   0  0  0  0  0  0  0  0  0  0  0  0
   10.6720   -6.8063    0.3436 C   0  0  0  0  0  0  0  0  0  0  0  0
   29.1515   -5.6774   -0.2524 C   0  0  0  0  0  0  0  0  0  0  0  0
   10.3322   -4.3041    1.1313 C   0  0  0  0  0  0  0  0  0  0  0  0
   29.2197   -8.2441   -0.8887 C   0  0  0  0  0  0  0  0  0  0  0  0
   11.7306   -6.3162    0.1755 C   0  0  0  0  0  0  0  0  0  0  0  0
   28.0464   -6.0629   -0.1170 C   0  0  0  0  0  0  0  0  0  0  0  0
   12.8679   -6.8892    0.3407 C   0  0  0  0  0  0  0  0  0  0  0  0
   26.9740   -5.3879   -0.3249 C   0  0  0  0  0  0  0  0  0  0  0  0
   12.8616   -8.1526    0.7459 C   0  0  0  0  0  0  0  0  0  0  0  0
   27.1049   -4.1437   -0.7620 C   0  0  0  0  0  0  0  0  0  0  0  0
   13.9128   -6.3591    0.1603 C   0  0  0  0  0  0  0  0  0  0  0  0
   25.8836   -5.8267   -0.1724 C   0  0  0  0  0  0  0  0  0  0  0  0
   15.0829   -6.8447    0.2974 C   0  0  0  0  0  0  0  0  0  0  0  0
   24.7624   -5.2516   -0.3475 C   0  0  0  0  0  0  0  0  0  0  0  0
   16.0586   -6.2156    0.0868 C   0  0  0  0  0  0  0  0  0  0  0  0
   23.7178   -5.7690   -0.1699 C   0  0  0  0  0  0  0  0  0  0  0  0
   17.2699   -6.6276    0.1974 C   0  0  0  0  0  0  0  0  0  0  0  0
   22.5564   -5.2336   -0.3155 C   0  0  0  0  0  0  0  0  0  0  0  0
   17.4644   -7.8703    0.6132 C   0  0  0  0  0  0  0  0  0  0  0  0
   22.5160   -3.9754   -0.7239 C   0  0  0  0  0  0  0  0  0  0  0  0
   18.2129   -5.9463   -0.0290 C   0  0  0  0  0  0  0  0  0  0  0  0
   21.6028   -5.9016   -0.0929 C   0  0  0  0  0  0  0  0  0  0  0  0
   19.4455   -6.2494    0.0474 C   0  0  0  0  0  0  0  0  0  0  0  0
   20.3783   -5.5641   -0.1802 C   0  0  0  0  0  0  0  0  0  0  0  0
    6.7534   -6.6376   -0.9712 H   0  0  0  0  0  0  0  0  0  0  0  0
    7.0192   -6.3397    0.5175 H   0  0  0  0  0  0  0  0  0  0  0  0
   32.9801   -6.2200    1.2183 H   0  0  0  0  0  0  0  0  0  0  0  0
   31.8614   -7.1066    1.7985 H   0  0  0  0  0  0  0  0  0  0  0  0
    6.6330   -4.5199   -0.5888 H   0  0  0  0  0  0  0  0  0  0  0  0
    7.8199   -4.8035   -1.5311 H   0  0  0  0  0  0  0  0  0  0  0  0
   33.0944   -8.2133    0.4065 H   0  0  0  0  0  0  0  0  0  0  0  0
   32.7649   -7.2179   -0.7244 H   0  0  0  0  0  0  0  0  0  0  0  0
    8.5467   -3.4845   -0.0941 H   0  0  0  0  0  0  0  0  0  0  0  0
    7.8561   -4.2276    1.0744 H   0  0  0  0  0  0  0  0  0  0  0  0
   31.4698   -8.8185   -0.9856 H   0  0  0  0  0  0  0  0  0  0  0  0
   31.1363   -8.9288    0.5209 H   0  0  0  0  0  0  0  0  0  0  0  0
    8.1920   -7.5135   -2.2219 H   0  0  0  0  0  0  0  0  0  0  0  0
    9.6909   -7.6173   -1.8488 H   0  0  0  0  0  0  0  0  0  0  0  0
    9.0799   -6.2384   -2.2004 H   0  0  0  0  0  0  0  0  0  0  0  0
    9.1253   -8.7043   -0.0419 H   0  0  0  0  0  0  0  0  0  0  0  0
    7.6061   -8.5235   -0.2171 H   0  0  0  0  0  0  0  0  0  0  0  0
    8.2911   -8.0231    1.0836 H   0  0  0  0  0  0  0  0  0  0  0  0
   31.2217   -4.1856   -0.5297 H   0  0  0  0  0  0  0  0  0  0  0  0
   32.0256   -5.3591   -1.1443 H   0  0  0  0  0  0  0  0  0  0  0  0
   32.6079   -4.5486    0.0452 H   0  0  0  0  0  0  0  0  0  0  0  0
   31.6074   -4.7058    2.1136 H   0  0  0  0  0  0  0  0  0  0  0  0
   30.3811   -5.6447    2.2916 H   0  0  0  0  0  0  0  0  0  0  0  0
   30.2607   -4.3504    1.4415 H   0  0  0  0  0  0  0  0  0  0  0  0
   10.6037   -7.6997    0.6623 H   0  0  0  0  0  0  0  0  0  0  0  0
   29.3239   -4.7942   -0.5631 H   0  0  0  0  0  0  0  0  0  0  0  0
    9.8888   -3.7145    1.7500 H   0  0  0  0  0  0  0  0  0  0  0  0
   10.8240   -3.7568    0.5138 H   0  0  0  0  0  0  0  0  0  0  0  0
   10.9380   -4.8163    1.6704 H   0  0  0  0  0  0  0  0  0  0  0  0
   28.6939   -8.6723   -0.2084 H   0  0  0  0  0  0  0  0  0  0  0  0
   29.5638   -8.9416   -1.4560 H   0  0  0  0  0  0  0  0  0  0  0  0
   28.6620   -7.7217   -1.4683 H   0  0  0  0  0  0  0  0  0  0  0  0
   11.7975   -5.4297   -0.1726 H   0  0  0  0  0  0  0  0  0  0  0  0
   27.8792   -6.9284    0.2471 H   0  0  0  0  0  0  0  0  0  0  0  0
   13.7122   -8.5734    0.8582 H   0  0  0  0  0  0  0  0  0  0  0  0
   12.3825   -8.6973    0.1131 H   0  0  0  0  0  0  0  0  0  0  0  0
   12.4195   -8.2214    1.5981 H   0  0  0  0  0  0  0  0  0  0  0  0
   27.5737   -3.6149   -0.1087 H   0  0  0  0  0  0  0  0  0  0  0  0
   26.2982   -3.6704   -0.9591 H   0  0  0  0  0  0  0  0  0  0  0  0
   27.6148   -4.1340   -1.5783 H   0  0  0  0  0  0  0  0  0  0  0  0
   13.8950   -5.4463   -0.1280 H   0  0  0  0  0  0  0  0  0  0  0  0
   25.8142   -6.7328    0.1293 H   0  0  0  0  0  0  0  0  0  0  0  0
   15.1741   -7.7468    0.5759 H   0  0  0  0  0  0  0  0  0  0  0  0
   24.7676   -4.3444   -0.6267 H   0  0  0  0  0  0  0  0  0  0  0  0
   15.9671   -5.3069   -0.1973 H   0  0  0  0  0  0  0  0  0  0  0  0
   23.7173   -6.6818    0.1173 H   0  0  0  0  0  0  0  0  0  0  0  0
   17.0275   -8.0056    1.4603 H   0  0  0  0  0  0  0  0  0  0  0  0
   17.0891   -8.4899   -0.0205 H   0  0  0  0  0  0  0  0  0  0  0  0
   18.3698   -8.1438    0.7497 H   0  0  0  0  0  0  0  0  0  0  0  0
   22.9590   -3.4020   -0.0914 H   0  0  0  0  0  0  0  0  0  0  0  0
   21.6290   -3.6292   -0.8299 H   0  0  0  0  0  0  0  0  0  0  0  0
   22.9472   -3.8843   -1.5790 H   0  0  0  0  0  0  0  0  0  0  0  0
   18.0534   -5.0472   -0.3153 H   0  0  0  0  0  0  0  0  0  0  0  0
   21.7327   -6.8064    0.1911 H   0  0  0  0  0  0  0  0  0  0  0  0
   19.6593   -7.1382    0.3132 H   0  0  0  0  0  0  0  0  0  0  0  0
   20.1952   -4.6692   -0.4526 H   0  0  0  0  0  0  0  0  0  0  0  0
  1  3  1  0  0  0  0
  1  7  1  0  0  0  0
  1 13  1  0  0  0  0
  1 14  1  0  0  0  0
  2  4  1  0  0  0  0
  2  8  1  0  0  0  0
  2 15  1  0  0  0  0
  2 16  1  0  0  0  0
  3  5  1  0  0  0  0
  3 41  1  0  0  0  0
  3 42  1  0  0  0  0
  4  6  1  0  0  0  0
  4 43  1  0  0  0  0
  4 44  1  0  0  0  0
  5  9  1  0  0  0  0
  5 45  1  0  0  0  0
  5 46  1  0  0  0  0
  6 10  1  0  0  0  0
  6 47  1  0  0  0  0
  6 48  1  0  0  0  0
  7 11  2  0  0  0  0
  7 17  1  0  0  0  0
  8 12  2  0  0  0  0
  8 18  1  0  0  0  0
  9 11  1  0  0  0  0
  9 49  1  0  0  0  0
  9 50  1  0  0  0  0
 10 12  1  0  0  0  0
 10 51  1  0  0  0  0
 10 52  1  0  0  0  0
 11 19  1  0  0  0  0
 12 20  1  0  0  0  0
 13 53  1  0  0  0  0
 13 54  1  0  0  0  0
 13 55  1  0  0  0  0
 14 56  1  0  0  0  0
 14 57  1  0  0  0  0
 14 58  1  0  0  0  0
 15 59  1  0  0  0  0
 15 60  1  0  0  0  0
 15 61  1  0  0  0  0
 16 62  1  0  0  0  0
 16 63  1  0  0  0  0
 16 64  1  0  0  0  0
 17 21  2  0  0  0  0
 17 65  1  0  0  0  0
 18 22  2  0  0  0  0
 18 66  1  0  0  0  0
 19 67  1  0  0  0  0
 19 68  1  0  0  0  0
 19 69  1  0  0  0  0
 20 70  1  0  0  0  0
 20 71  1  0  0  0  0
 20 72  1  0  0  0  0
 21 23  1  0  0  0  0
 21 73  1  0  0  0  0
 22 24  1  0  0  0  0
 22 74  1  0  0  0  0
 23 25  1  0  0  0  0
 23 27  2  0  0  0  0
 24 26  1  0  0  0  0
 24 28  2  0  0  0  0
 25 75  1  0  0  0  0
 25 76  1  0  0  0  0
 25 77  1  0  0  0  0
 26 78  1  0  0  0  0
 26 79  1  0  0  0  0
 26 80  1  0  0  0  0
 27 29  1  0  0  0  0
 27 81  1  0  0  0  0
 28 30  1  0  0  0  0
 28 82  1  0  0  0  0
 29 31  2  0  0  0  0
 29 83  1  0  0  0  0
 30 32  2  0  0  0  0
 30 84  1  0  0  0  0
 31 33  1  0  0  0  0
 31 85  1  0  0  0  0
 32 34  1  0  0  0  0
 32 86  1  0  0  0  0
 33 35  1  0  0  0  0
 33 37  2  0  0  0  0
 34 36  1  0  0  0  0
 34 38  2  0  0  0  0
 35 87  1  0  0  0  0
 35 88  1  0  0  0  0
 35 89  1  0  0  0  0
 36 90  1  0  0  0  0
 36 91  1  0  0  0  0
 36 92  1  0  0  0  0
 37 39  1  0  0  0  0
 37 93  1  0  0  0  0
 38 40  1  0  0  0  0
 38 94  1  0  0  0  0
 39 40  2  0  0  0  0
 39 95  1  0  0  0  0
 40 96  1  0  0  0  0
M  END
